parallel/peak_load/60pc/TNB_DUMA_EXP_VOLTAGES.CSV
Bus, BasekV, Node1, Magnitude1, Angle1, pu1, Node2, Magnitude2, Angle2, pu2, Node3, Magnitude3, Angle3, pu3
"PPU_DUMA_33KV", 33, 1,    18986.8,    2.6,   0.99655, 2,    18986.8, -117.4,   0.99655, 3,    18986.8,  122.6,   0.99655
"PPU_DUMA_11KV", 11, 1,    6151.74,  -18.5,   0.96865, 2,    6151.74, -138.5,   0.96865, 3,    6151.74,  101.5,   0.96865
"RPPLNGI2", 11, 1,    6215.32,  -17.7,   0.97866, 2,    6215.32, -137.7,   0.97866, 3,    6215.32,  102.3,   0.97866
"PDTJLNMASJID", 11, 1,    6263.38,  -17.1,   0.98623, 2,    6263.38, -137.1,   0.98623, 3,    6263.38,  102.9,   0.98623
"BELLA", 11, 1,    6295.59,  -16.7,    0.9913, 2,    6295.59, -136.7,    0.9913, 3,    6295.59,  103.3,    0.9913
"PSTPDGN", 11, 1,    6311.75,  -16.5,   0.99384, 2,    6311.75, -136.5,   0.99384, 3,    6311.75,  103.5,   0.99384
"PAMDRA", 11, 1,    6160.22,  -18.4,   0.96998, 2,    6160.22, -138.4,   0.96998, 3,    6160.22,  101.6,   0.96998
"DUMA4", 11, 1,    6188.47,  -18.2,   0.97443, 2,    6188.47, -138.2,   0.97443, 3,    6188.47,  101.8,   0.97443
"PLSDRA", 11, 1,    6248.94,  -17.9,   0.98395, 2,    6248.94, -137.9,   0.98395, 3,    6248.94,  102.1,   0.98395
"SSU_UPTWRES_IR1", 11, 1,    6256.17,  -17.8,   0.98509, 2,    6256.17, -137.8,   0.98509, 3,    6256.17,  102.2,   0.98509
"ATRIA_1", 11, 1,    6256.84,  -17.3,    0.9852, 2,    6256.84, -137.3,    0.9852, 3,    6256.84,  102.7,    0.9852
"HAWKER", 11, 1,    6273.84,  -16.5,   0.98787, 2,    6273.84, -136.5,   0.98787, 3,    6273.84,  103.5,   0.98787
"PRMTE", 11, 1,    6189.46,  -17.7,   0.97459, 2,    6189.46, -137.7,   0.97459, 3,    6189.46,  102.3,   0.97459
"PRMTA", 11, 1,    6196.97,  -17.6,   0.97577, 2,    6196.97, -137.6,   0.97577, 3,    6196.97,  102.4,   0.97577
"PMONTB", 11, 1,    6205.68,  -17.5,   0.97714, 2,    6205.68, -137.5,   0.97714, 3,    6205.68,  102.5,   0.97714
"DUMA7", 11, 1,    6178.69,  -18.2,   0.97289, 2,    6178.69, -138.2,   0.97289, 3,    6178.69,  101.8,   0.97289
"HAUS", 11, 1,    6240.99,  -17.9,    0.9827, 2,    6240.99, -137.9,    0.9827, 3,    6240.99,  102.1,    0.9827
"DUMA6", 11, 1,    6413.16,  -17.1,    1.0098, 2,    6413.16, -137.1,    1.0098, 3,    6413.16,  102.9,    1.0098
"DUMA13", 11, 1,    6573.37,  -16.4,     1.035, 2,    6573.37, -136.4,     1.035, 3,    6573.37,  103.6,     1.035
"SSU_DUMA5_IM2", 11, 1,    6591.95,  -16.2,     1.038, 2,    6591.95, -136.2,     1.038, 3,    6591.95,  103.8,     1.038
"PLNGI_B", 11, 1,    6196.82,  -18.0,   0.97575, 2,    6196.82, -138.0,   0.97575, 3,    6196.82,  102.0,   0.97575
"PLNGI_D", 11, 1,    6221.84,  -17.8,   0.97969, 2,    6221.84, -137.8,   0.97969, 3,    6221.84,  102.2,   0.97969
"PDTLITRAK", 11, 1,     6342.4,  -16.4,   0.99867, 2,     6342.4, -136.4,   0.99867, 3,     6342.4,  103.6,   0.99867
"DUMA12", 11, 1,    6419.94,  -15.6,    1.0109, 2,    6419.94, -135.6,    1.0109, 3,    6419.94,  104.4,    1.0109
"TMNGH4", 11, 1,    6496.39,  -15.3,    1.0229, 2,    6496.39, -135.3,    1.0229, 3,    6496.39,  104.7,    1.0229
"SSU_TMEGAH3_IR1", 11, 1,    6526.76,  -15.2,    1.0277, 2,    6526.76, -135.2,    1.0277, 3,    6526.76,  104.8,    1.0277
"TMNGH2", 11, 1,    6539.04,  -15.1,    1.0296, 2,    6539.04, -135.1,    1.0296, 3,    6539.04,  104.9,    1.0296
"SPRK9", 11, 1,    6283.24,  -16.7,   0.98935, 2,    6283.24, -136.7,   0.98935, 3,    6283.24,  103.3,   0.98935
"BOMBA", 11, 1,    6291.67,  -16.7,   0.99068, 2,    6291.67, -136.7,   0.99068, 3,    6291.67,  103.3,   0.99068
"SPRK8", 11, 1,    6312.73,  -16.6,     0.994, 2,    6312.73, -136.6,     0.994, 3,    6312.73,  103.4,     0.994
"SSU_UPTWRES_IM2", 11, 1,    6176.47,  -18.1,   0.97254, 2,    6176.47, -138.1,   0.97254, 3,    6176.47,  101.9,   0.97254
"MAYBANK", 11, 1,    6219.72,  -17.7,   0.97935, 2,    6219.72, -137.7,   0.97935, 3,    6219.72,  102.3,   0.97935
"DUMA8", 11, 1,    6228.11,  -17.7,   0.98067, 2,    6228.11, -137.7,   0.98067, 3,    6228.11,  102.3,   0.98067
"SSU_DSARCNTR_IR1", 11, 1,    6175.71,  -18.3,   0.97242, 2,    6175.71, -138.3,   0.97242, 3,    6175.71,  101.7,   0.97242
"DUMA9", 11, 1,     6273.6,  -17.1,   0.98784, 2,     6273.6, -137.1,   0.98784, 3,     6273.6,  102.9,   0.98784
"DUMA1", 11, 1,    6323.71,  -16.5,   0.99573, 2,    6323.71, -136.5,   0.99573, 3,    6323.71,  103.5,   0.99573
"ELITE", 11, 1,    6341.68,  -16.3,   0.99856, 2,    6341.68, -136.3,   0.99856, 3,    6341.68,  103.7,   0.99856
"DUMA10", 11, 1,     6251.9,  -17.5,   0.98442, 2,     6251.9, -137.5,   0.98442, 3,     6251.9,  102.5,   0.98442
"BALAIPOLIS", 11, 1,    6252.95,  -17.5,   0.98458, 2,    6252.95, -137.5,   0.98458, 3,    6252.95,  102.5,   0.98458
"PPU_DUMA_VCB1", 33, 1,          0,    0.0,         0, 2,          0,    0.0,         0, 3,          0,    0.0,         0
